powerflow/Codes/PF_Formulation/resultados_csv/ramos.csv
caso,script,branch_id,f_bus,t_bus,pf_pu,qf_pu,pt_pu,qt_pu,loss_p_pu,loss_q_pu
3bus.pwf,14,1,1,2,2.5149782210966278e-8,2.1574591810808483e-8,-2.5149781322787858e-8,-2.1574590478540854e-8,8.881784197001252e-16,1.3322676295501878e-15
3bus.pwf,14,2,1,3,0.15571402824743463,0.03026346249507899,-0.15195000758794508,-0.0266450116953491,0.003764020659489553,0.0036184507997298887
3bus.pwf,14,3,2,3,0.15571400204052732,0.030263440652122157,-0.1519499827479941,-0.026644991166481995,0.003764019292533227,0.0036184494856401628
3bus_DBSH.pwf,14,1,1,2,-2.035112266119697e-10,-1.2163364095923551e-8,2.035112266119697e-10,1.2163363651834341e-8,0.0,-4.440892098500626e-16
3bus_DBSH.pwf,14,2,1,3,0.16604627152519924,0.21353748189305943,-0.15194998127094583,-0.19998635203537918,0.014096290254253407,0.013551129857680255
3bus_DBSH.pwf,14,3,2,3,0.1660462726016026,0.21353749416298803,-0.15194998133356458,-0.19998636333073047,0.01409629126803802,0.013551130832257563
3bus_DCER.pwf,14,1,1,2,-2.035112266119697e-10,-1.2163364095923551e-8,2.035112266119697e-10,1.2163363651834341e-8,0.0,-4.440892098500626e-16
3bus_DCER.pwf,14,2,1,3,0.16604627152519924,0.21353748189305943,-0.15194998127094583,-0.19998635203537918,0.014096290254253407,0.013551129857680255
3bus_DCER.pwf,14,3,2,3,0.1660462726016026,0.21353749416298803,-0.15194998133356458,-0.19998636333073047,0.01409629126803802,0.013551130832257563
3bus_DCSC.pwf,14,1,1,3,0.00025208144655383593,0.014173945222087089,-0.0002220105752510351,-0.014145037312657757,3.007087130280084e-5,2.890790942933208e-5
3bus_DCSC.pwf,14,2,2,3,0.0002520394160073162,0.014173905387779993,-0.0002219687161207299,-0.014144997643137956,3.0070699886586283e-5,2.890774464203716e-5
3bus_DCSC.pwf,14,3,1,2,-2.100926887477654e-8,-2.277684274076819e-6,2.100926887477654e-8,2.2776842172334e-6,0.0,-5.684341886080802e-14
3bus_DCline.pwf,14,1,1,3,0.15571374939619798,0.030263734791579414,-0.15194972999736933,-0.026645285203755656,0.003764019398828644,0.0036184495878237577
3bus_DCline.pwf,14,2,2,3,0.15571431054860185,0.03026318471450635,-0.15195027000202876,-0.02664471479680703,0.0037640405465730886,0.0036184699176993185
3bus_shunt_fields.pwf,14,1,1,2,0.01628948909896505,0.21054081393475702,-0.007189186444118867,-0.20179245668645254,0.009100302654846182,0.008748357248304472
3bus_shunt_fields.pwf,14,2,1,3,0.1684343544123676,0.052134781064809864,-0.16209001529187245,-0.04603580312577018,0.006344339120495146,0.006098977939039685
3bus_shunt_fields.pwf,14,3,2,3,0.15165470456164648,-0.1452856674276478,-0.14180998491464342,0.15474965206067826,0.009844719647003064,0.009463984633030442
3busfrank.pwf,14,1,1,2,8.957210103482002e-17,-9.317557636380705e-17,-8.957210103482002e-17,9.317557636380705e-17,0.0,0.0
3busfrank.pwf,14,2,1,3,0.2323808175507554,0.12407935097736958,-0.22199999825657263,-0.11409999983268607,0.010380819294182775,0.009979351144683513
3busfrank.pwf,14,3,2,3,0.23238081755075532,0.12407935097736966,-0.22199999825657254,-0.11409999983268615,0.010380819294182775,0.009979351144683513
3busfrank_continuous_shunt.pwf,14,1,1,2,-6.000044620717268e-18,6.241425726148424e-18,6.000044620717268e-18,-6.241425726148424e-18,0.0,0.0
3busfrank_continuous_shunt.pwf,14,2,1,2,-6.000044620717268e-18,6.241425726148424e-18,6.000044620717268e-18,-6.241425726148424e-18,0.0,0.0
3busfrank_continuous_shunt.pwf,14,3,1,3,0.1150407081583012,0.11737999329286834,-0.11099999533537758,-0.11349555113160452,0.00404071282292362,0.0038844421612638236
3busfrank_continuous_shunt.pwf,14,4,1,3,0.1150407081583012,0.11737999329286834,-0.11099999533537758,-0.11349555113160452,0.00404071282292362,0.0038844421612638236
3busfrank_continuous_shunt.pwf,14,5,2,3,0.11504070815830121,0.11737999329286833,-0.11099999533537759,-0.1134955511316045,0.00404071282292362,0.0038844421612638236
3busfrank_continuous_shunt.pwf,14,6,2,3,0.11504070815830121,0.11737999329286833,-0.11099999533537759,-0.1134955511316045,0.00404071282292362,0.0038844421612638236
3busfrank_qlim.pwf,14,1,1,2,-1.8812146248162775e-7,1.441609062446691e-7,1.8812147136341195e-7,-1.4416089825106334e-7,8.881784197001252e-15,7.993605777301127e-15
3busfrank_qlim.pwf,14,2,1,3,0.31373405069873317,0.5608947529769577,-0.25194991513060727,-0.5015000591158867,0.0617841355681259,0.05939469386107099
3busfrank_qlim.pwf,14,3,2,3,0.31373421387606326,0.5608946282249696,-0.25195008484157766,-0.5014999406448557,0.0617841290344856,0.0593946875801139
5busfrank.pwf,14,1,3,4,0.008276441511851067,0.04685801517734954,-0.007895633476156443,-0.04649193452425192,0.0003808080356946242,0.0003660806530976224
5busfrank.pwf,14,2,1,2,1.5529218260613823e-16,-1.6153956926270707e-16,-1.5529218260613823e-16,1.6153956926270707e-16,0.0,0.0
5busfrank.pwf,14,3,4,5,0.00399563342506622,0.023291934679409175,-0.0039000000557137433,-0.023199999838153372,9.56333693524769e-5,9.193484125580298e-5
5busfrank.pwf,14,4,1,3,0.2379202869828831,0.14885541476226843,-0.22613821964993436,-0.13752900749192082,0.011782067332948731,0.011326407270347616
5busfrank.pwf,14,5,2,3,0.23792028698288292,0.1488554147622686,-0.2261382196499342,-0.13752900749192098,0.011782067332948731,0.011326407270347616
5busfrank_cphs.pwf,14,1,3,4,0.050872927882075036,0.10895408517506217,-0.04842131936631705,-0.10659729024831127,0.002451608515757986,0.0023567949267508936
5busfrank_cphs.pwf,14,2,1,2,-1.1394671597903062e-7,-8.483475484065786e-8,1.1394671864356588e-7,8.483475706110391e-8,2.6645352591003757e-15,2.220446049250313e-15
5busfrank_cphs.pwf,14,3,4,5,0.02452131936638434,0.05359729033637617,-0.023900000005581,-0.0529999999011288,0.0006213193608033407,0.0005972904352473662
5busfrank_cphs.pwf,14,4,1,3,0.2923368389243043,0.12034924074635678,-0.2773864090038648,-0.10597700424825407,0.01495042992043949,0.014372236498102708
5busfrank_cphs.pwf,14,5,2,3,0.2923369609754588,0.12034933018099879,-0.27738651803478376,-0.10597708116620662,0.014950442940675046,0.014372249014792171
5busfrank_ctaf.pwf,14,1,1,2,-1.1394671634714114e-7,-8.483475445773828e-8,1.139467190116764e-7,8.483475667818433e-8,2.6645352591003757e-15,2.220446049250313e-15
5busfrank_ctaf.pwf,14,2,1,3,0.2923368389243041,0.12034924074635696,-0.27738640900386463,-0.10597700424825425,0.01495042992043949,0.014372236498102708
5busfrank_ctaf.pwf,14,3,2,3,0.29233696097545897,0.12034933018099861,-0.2773865180347839,-0.10597708116620644,0.014950442940675046,0.014372249014792171
5busfrank_ctaf.pwf,14,4,3,4,0.050872927882075925,0.10895408517506261,-0.048421319366317495,-0.10659729024831216,0.00245160851575843,0.0023567949267504495
5busfrank_ctaf.pwf,14,5,4,5,0.024521319366384332,0.053597290336376176,-0.023900000005581436,-0.052999999901129254,0.0006213193608028966,0.0005972904352469222
5busfrank_ctap.pwf,14,1,1,2,-1.1394671634714114e-7,-8.483475445773828e-8,1.139467190116764e-7,8.483475667818433e-8,2.6645352591003757e-15,2.220446049250313e-15
5busfrank_ctap.pwf,14,2,1,3,0.2923368389243041,0.12034924074635696,-0.27738640900386463,-0.10597700424825425,0.01495042992043949,0.014372236498102708
5busfrank_ctap.pwf,14,3,2,3,0.29233696097545897,0.12034933018099861,-0.2773865180347839,-0.10597708116620644,0.014950442940675046,0.014372249014792171
5busfrank_ctap.pwf,14,4,3,4,0.050872927882075925,0.10895408517506261,-0.048421319366317495,-0.10659729024831216,0.00245160851575843,0.0023567949267504495
5busfrank_ctap.pwf,14,5,4,5,0.024521319366384332,0.053597290336376176,-0.023900000005581436,-0.052999999901129254,0.0006213193608028966,0.0005972904352469222
9bus.pwf,14,1,7,8,0.5422571381368159,0.01487256781374885,-0.5401140638520722,-0.17529390238688908,0.0021430742847436957,-0.16042133457314023
9bus.pwf,14,2,4,5,0.922008279147973,0.08842877339667216,-0.9146275128374036,-0.23335246450416908,0.007380766310569387,-0.14492369110749692
9bus.pwf,14,3,4,6,0.6545114880544493,-0.08647507540814668,-0.6484563869495764,-0.06918120873207269,0.00605510110487284,-0.15565628414021937
9bus.pwf,14,4,6,9,-0.251543612960845,-0.23081879127219182,0.25364313682626455,-0.18823408584398318,0.0020995238654195614,-0.419052877116175
9bus.pwf,14,5,7,5,0.3387059778844429,-0.07870893658544212,-0.33537248720093304,-0.2666475354796327,0.0033334906835098543,-0.3453564720650748
9bus.pwf,14,6,8,9,-0.4598859362137412,-0.17470609759597366,0.4620320075940213,-0.05759923303818836,0.0021460713802801124,-0.23230533063416203
9bus.pwf,14,7,1,4,1.5765197672152573,0.12096431910865135,-1.5765197672152573,-0.001953697984031777,0.0,0.11901062112461958
9bus.pwf,14,8,2,7,0.8809631162495987,-0.023538073117769898,-0.8809631162495987,0.06383636880760335,0.0,0.04029829568983345
9bus.pwf,14,9,3,9,0.7156751445286982,-0.21810114351227128,-0.7156751445286982,0.2458333188952153,0.0,0.027732175382944035
9bus_transformer_fields.pwf,14,1,7,8,0.538644374130905,-0.01476972861981072,-0.5365799711310297,-0.14788271775542608,0.0020644029998753144,-0.1626524463752368
9bus_transformer_fields.pwf,14,2,4,5,0.919872512798381,0.07866991429844528,-0.9125802905064176,-0.2252475956342621,0.007292222291963357,-0.14657768133581683
9bus_transformer_fields.pwf,14,3,4,6,0.6485698694846832,-0.11355647247647799,-0.642641912947363,-0.043872344781977934,0.005927956537320256,-0.15742881725845592
9bus_transformer_fields.pwf,14,4,6,9,-0.2573580689918284,-0.2561276558859947,0.25958586201366146,-0.16726547443101306,0.002227793021833069,-0.42339313031700776
9bus_transformer_fields.pwf,14,5,7,5,0.34081112474736586,-0.07250255054908836,-0.337419704558383,-0.2747524040462055,0.0033914201889828632,-0.3472549545952939
9bus_transformer_fields.pwf,14,6,8,9,-0.46342000071544703,-0.2021172816060137,0.4656088922568887,-0.033020520919262684,0.00218889154144164,-0.23513780252527638
9bus_transformer_fields.pwf,14,7,1,4,1.5684423913253889,0.08254254624250734,-1.5684423913253889,0.03488656040652316,0.0,0.1174291066490305
9bus_transformer_fields.pwf,14,8,2,7,0.8794555066355948,-0.04720649123524012,-0.8794555066355948,0.08727228050644698,0.0,0.04006578927120685
9bus_transformer_fields.pwf,14,9,3,9,0.7251947578691031,-0.1732749532366249,-0.7251947578691031,0.20028599749581844,0.0,0.02701104425919354
300bus.pwf,15,1,206,207,-0.08797950564119011,-0.08983059904816622,0.08913831809231981,0.09130689436261848,0.0011588124511296982,0.0014762953144522584
300bus.pwf,15,2,9021,9023,0.009139657857114269,0.0034783305307208236,-0.009031288573991969,-0.0033850416930145057,0.00010836928312230043,9.32888377063179e-5
300bus.pwf,15,3,1,5,4.062679563275223,1.0393906155968424,-4.045894293660142,-0.9386789979063351,0.016785269615080978,0.1007116176905073
300bus.pwf,15,4,37,38,-0.3084464068053331,0.013237290461557437,0.30922521147590454,-0.01651845477186977,0.0007788046705714535,-0.0032811643103123345
300bus.pwf,15,5,70,528,0.28369704181013283,-0.21406753186449323,-0.28099999798561465,0.2049999994419277,0.002697043824518186,-0.009067532422565527
300bus.pwf,15,6,25,26,0.7874564415759523,-0.034368663387997545,-0.76609476632452,0.04181238799958459,0.02136167525143229,0.007443724611587044
300bus.pwf,15,7,41,42,-5.59885318099299,0.3076656893452494,5.59885318099299,0.5998346921745039,0.0,0.9075003815197533
300bus.pwf,15,8,231,232,5.528899895173566,0.9892531286850017,-5.522822731541637,-2.271340037827068,0.006077163631929672,-1.2820869091420664
300bus.pwf,15,9,201,204,-0.11926459804285729,0.06388221818368572,0.12169393753802017,-0.060296983283567085,0.0024293394951628855,0.003585234900118639
300bus.pwf,15,10,119,1190,1.004015945033344,0.31506673576702465,-1.0029999999999952,-0.2916999999999976,0.0010159450333486753,0.02336673576702708
300bus.pwf,15,11,115,122,1.8321527224106167,0.7311241571281853,-1.8155913848312413,-0.642881454221964,0.01656133757937539,0.08824270290622138
300bus.pwf,15,12,9006,9007,0.09134606396303045,0.028025262287572347,-0.09079518364487969,-0.025580495478016826,0.0005508803181507593,0.002444766809555521
300bus.pwf,15,13,145,146,-2.051261462935494,-0.4036201124734241,2.0875994796776465,0.5627227574473018,0.03633801674215231,0.15910264497387772
300bus.pwf,15,14,228,231,0.0545902191290493,-0.11510109884802368,-0.05455133516133324,0.11647250647862918,3.8883967716063506e-5,0.0013714076306055034
300bus.pwf,15,15,129,133,0.9898014127034691,-0.15642083710292243,-0.987672247448478,0.145675025664724,0.0021291652549910722,-0.010745811438198416
300bus.pwf,15,16,189,208,0.08024260947504473,0.02482611278207629,-0.08000824983624126,-0.024151441094613244,0.00023435963880347188,0.0006746716874630465
300bus.pwf,15,17,57,58,-0.5950630920652343,0.8084595347279976,0.6405814007376974,-0.7658373003222781,0.04551830867246309,0.04262223440571944
300bus.pwf,15,18,200,210,-0.23446757950449007,-0.031112644859045274,0.2394081853607645,0.02584137679845952,0.004940605856274427,-0.005271268060585754
300bus.pwf,15,19,15,89,0.45186257891185627,-0.19439422526162475,-0.42878589237603576,0.21659622092618258,0.023076686535820512,0.022201995664557828
300bus.pwf,15,20,197,198,-0.9519715848978739,-0.24296771077497764,0.9618106356430441,0.29296087350215755,0.00983905074517022,0.04999316272717991
300bus.pwf,15,21,14,15,2.4503919762361313,-1.3415356780850196,-2.337649441699765,1.5845159418219943,0.11274253453636618,0.24298026373697468
300bus.pwf,15,22,9004,9044,-0.04299709869565571,-0.01569125529480691,0.043089494425110675,0.01576103432430547,9.239572945496377e-5,6.97790294985623e-5
300bus.pwf,15,23,173,176,-0.5062848540154254,0.09079212407448303,0.5567080409427526,-0.021805466866989504,0.05042318692732717,0.06898665720749353
300bus.pwf,15,24,224,226,-0.3707914675671333,-2.5499762356019837,0.37964761968541016,1.7160972353802275,0.008856152118276839,-0.8338790002217562
300bus.pwf,15,25,135,136,-2.151464653195673,-0.2944845727061183,2.1926578022001166,0.1686886448205187,0.04119314900444371,-0.12579592788559957
300bus.pwf,15,26,13,20,0.8803024222041537,-0.22851270748929772,-0.8753239590194609,0.2407993774933815,0.00497846318469275,0.012286670004083788
300bus.pwf,15,27,116,120,-2.9914769603436326,0.38562546260388847,3.010415237650257,0.6067087767636095,0.01893827730662423,0.9923342393674979
300bus.pwf,15,28,104,322,0.024121043338248355,-0.05349566194248536,-0.023999999994616078,0.03899999999640238,0.00012104334363227665,-0.014495661946082983
300bus.pwf,15,29,37,90,-0.5791794858791757,0.10298572288598684,0.5958511699670239,-0.07388401797393118,0.01667168408784825,0.02910170491205566
300bus.pwf,15,30,127,128,-0.5373539724251104,-0.2516919192304314,0.5393941498888335,0.1791493623284345,0.002040177463723092,-0.07254255690199687
300bus.pwf,15,31,26,320,0.024766769896110027,-0.13783598733511188,-0.023999999999940055,0.12599999999993067,0.000766769896169972,-0.011835987335181208
300bus.pwf,15,32,167,169,-1.5258060737519663,-0.5370063116652197,1.5308577238875427,0.5597093711436223,0.005051650135576402,0.022703059478402565
300bus.pwf,15,33,203,211,0.28424101885307246,0.00032445011414028446,-0.28343666018428576,-0.0035924884471093543,0.0008043586687866977,-0.00326803833296907
300bus.pwf,15,34,123,124,-1.5208517871611962,0.26021782364935747,1.6231235970971394,-0.05839601699913283,0.1022718099359432,0.20182180665022464
300bus.pwf,15,35,24,319,1.1678057321208886,-0.28084618639815634,-1.1579999999606703,0.23999999999576754,0.009805732160218295,-0.040846186402388795
300bus.pwf,15,36,99,109,0.31774966613549666,0.006440791415528814,-0.31306596516928265,-0.011835138233673138,0.0046837009662140106,-0.005394346818144324
300bus.pwf,15,37,77,78,-2.6167496545776046,-0.5431966454595498,2.624154220653162,0.5808333509909902,0.007404566075557284,0.037636705531440384
300bus.pwf,15,38,20,27,0.24261947946507015,0.0028188463909212536,-0.23836476515548513,-0.08668926886177078,0.004254714309585017,-0.08387042247084953
300bus.pwf,15,39,198,210,0.9362910926047908,0.27698362225039463,-0.9177386256675552,-0.21721620373028996,0.018552466937235668,0.05976741852010467
300bus.pwf,15,40,97,102,0.3048083438463532,0.0655546034160907,-0.3011865343271212,-0.06891874527775038,0.0036218095192319666,-0.003364141861659675
300bus.pwf,15,41,37,40,-0.18199732821785147,-0.02952697503472919,0.18275595526450722,0.024831459552272575,0.0007586270466557465,-0.004695515482456614
300bus.pwf,15,42,220,238,-2.835179800414013,0.3644426075761765,2.8483468949958444,-0.7358561746533604,0.013167094581831407,-0.37141356707718387
300bus.pwf,15,43,8,14,4.282257233468846,-0.07270898163259853,-4.05039190986094,0.7415356837151037,0.2318653236079058,0.6688267020825052
300bus.pwf,15,44,158,159,-2.3473651619276055,0.8937177100309305,2.369410410756161,-0.8351287388339584,0.022045248828555408,0.05858897119697204
300bus.pwf,15,45,217,220,-0.1900041496842893,-0.11271731665224444,0.1903636294841678,-0.7373906265356028,0.00035947979987849266,-0.8501079431878473
300bus.pwf,15,46,122,123,0.25202137998602475,-0.17362341700076153,-0.24302453411487096,0.17574157592944759,0.008996845871153791,0.0021181589286860536
300bus.pwf,15,47,228,234,-0.02575947576462391,-0.30053100288751305,0.02578339848585655,-0.5746772926695314,2.3922721232638722e-5,-0.8752082955570444
300bus.pwf,15,48,7,12,2.56618050576577,-1.0999895403514828,-2.558172914591621,1.1040380762194204,0.008007591174148843,0.00404853586793763
300bus.pwf,15,49,130,151,1.4040170193396913,0.7071269809211648,-1.3998808234319524,-0.6932307056778674,0.004136195907738838,0.013896275243297396
300bus.pwf,15,50,11,13,1.4776421368102919,-0.07283526555404896,-1.4603024221100909,0.12851270751635502,0.017339714700201014,0.05567744196230606
300bus.pwf,15,51,198,203,0.7088300777959249,0.1383434441384608,-0.7042410108165498,-0.140324449725896,0.0045890669793751115,-0.0019810055874351917
300bus.pwf,15,52,245,246,0.19704100013764053,0.03844053833919937,-0.1963699704111596,-0.03531191566541815,0.0006710297264809206,0.003128622673781223
300bus.pwf,15,53,165,166,-5.523849149685368,0.49638727284963224,5.529999999902505,-0.1181099844957326,0.006150850217136572,0.3782772883538996
300bus.pwf,15,54,235,238,-2.5849828265926575,-0.39119773564566873,2.5862942812320497,-0.42054114306365176,0.0013114546393921955,-0.8117388787093205
300bus.pwf,15,55,119,121,6.669216709208993,5.02558560106943,-6.669216709208993,-1.3019038463447483,0.0,3.723681754724682
300bus.pwf,15,56,63,526,1.5198543733205332,0.06144288771986292,-1.452999999659844,0.349000000271666,0.06685437366068925,0.41044288799152895
300bus.pwf,15,57,85,86,-1.2279363598827973,0.1676842723063839,1.2409689334526763,-0.18583230326128838,0.01303257356987908,-0.01814803095490447
300bus.pwf,15,58,125,126,-3.7016715816506087,0.2540598208079074,3.71092121221478,0.04963638271572118,0.009249630564171163,0.3036962035236286
300bus.pwf,15,59,172,173,0.3135154886514439,0.026095000180448483,-0.3070026171662417,-0.04242067489511876,0.006512871485202187,-0.01632567471467028
300bus.pwf,15,60,173,175,-0.18002922598476961,0.06567153449955393,0.18307000256204525,-0.09424539261047599,0.003040776577275639,-0.028573858110922057
300bus.pwf,15,61,126,129,0.2692530839262437,-0.5132454932846671,-0.26593332436053063,0.3713176462104004,0.003319759565713065,-0.14192784707426664
300bus.pwf,15,62,157,159,-6.20832874448408,1.7660580697778165,6.248368344450536,-1.3324473848889689,0.04003959996645623,0.4336106848888477
300bus.pwf,15,63,175,179,0.1583605787883679,-0.0549814372118123,-0.15625153972782774,0.012396016237283855,0.002109039060540163,-0.04258542097452844
300bus.pwf,15,64,154,183,-0.44790786885543005,0.1141634500822206,0.46679970820380107,-0.0846113738957157,0.01889183934837102,0.029552076186504905
300bus.pwf,15,65,21,24,-2.2707935792153338,-0.7675488202842466,2.2945171938283413,0.6970727487654174,0.023723614613007538,-0.07047607151882929
300bus.pwf,15,66,217,219,-1.1698802828981676,-1.8653988561171857,1.1721923710737483,1.925761777431508,0.0023120881755807066,0.06036292131432219
300bus.pwf,15,67,91,94,-0.15394195520067233,0.3562185281596011,0.16867987108800475,-0.3509573494322211,0.01473791588733242,0.005261178727379967
300bus.pwf,15,68,191,192,8.321103290958334,3.4842492961881946,-8.097106414618478,0.09970072524949225,0.22399687633985543,3.583950021437687
300bus.pwf,15,69,217,218,0.1690666371086296,0.3096520378290677,-0.1690666371086296,-0.3041951583043172,0.0,0.005456879524750491
300bus.pwf,15,70,12,21,4.888732553075041,0.8626771797245183,-4.838180634982223,-0.5966265718934849,0.05055191809281823,0.2660506078310334
300bus.pwf,15,71,178,179,0.19873033140517804,-0.21807707276792773,-0.1941318781245729,0.20870389910551343,0.004598453280605153,-0.009373173662414302
300bus.pwf,15,72,51,52,-0.25598506273300164,0.26640459507643116,0.2616519413957484,-0.2966132442537351,0.005666878662746733,-0.030208649177303926
300bus.pwf,15,73,158,160,-0.9458869331296873,-0.23302736740219868,0.9529393666747417,0.04205267418282102,0.00705243354505436,-0.19097469321937766
300bus.pwf,15,74,33,38,1.425254889191775,0.08163137299617684,-1.4201200586630358,-0.06983231821518299,0.005134830528739087,0.011799054780993856
300bus.pwf,15,75,199,200,-0.016692710122354633,-0.010853719712397642,0.016719903168259893,0.002719725148885261,2.7193045905260504e-5,-0.008133994563512381
300bus.pwf,15,76,98,100,-0.049335993677556374,-0.03301101062157408,0.04941531223803786,0.026200963360779924,7.931856048148944e-5,-0.006810047260794153
300bus.pwf,15,77,126,157,-3.5939958103521956,1.2195911846502794,3.6767402126047157,-0.6772532594457975,0.08274440225252011,0.5423379252044819
300bus.pwf,15,78,53,54,-0.36329852736426366,-0.019931105944046026,0.36677909483156407,-0.0034300442298090678,0.0034805674673004106,-0.023361150173855094
300bus.pwf,15,79,72,531,0.14056406793224535,0.029252545675255058,-0.1399999996987526,-0.02500000000868787,0.0005640682334927538,0.004252545666567187
300bus.pwf,15,80,2,8,4.573452889462147,-0.07511245773922892,-4.455663091433913,0.5486352247663916,0.11778979802823386,0.47352276702716267
300bus.pwf,15,81,48,107,-0.4369766510927115,-0.08668437508996393,0.4420921611273722,0.09248535011546852,0.0051155100346607085,0.0058009750255045844
300bus.pwf,15,82,199,210,-0.33330728220126177,-0.10914628106039377,0.33871070663178654,0.11826500471600383,0.0054034244305247725,0.009118723655610061
300bus.pwf,15,83,15,90,0.5109199030454176,-0.11206890042147846,-0.48537297987922956,0.16011560582458798,0.025546923166188007,0.04804670540310951
300bus.pwf,15,84,45,74,2.466219183144695,-0.23323326629447289,-2.4107948580459926,0.16445045998559132,0.05542432509870254,-0.06878280630888156
300bus.pwf,15,85,35,76,1.1331291702688344,0.25743151641122136,-1.1245790052661175,-0.2393563709713838,0.00855016500271688,0.01807514543983757
300bus.pwf,15,86,117,118,-8.947777964712607,3.144677613247294,8.958641527431084,-2.963138415601717,0.010863562718476771,0.18153919764557713
300bus.pwf,15,87,39,42,4.999999256518571,1.7922500842403246,-4.983320962576412,-2.0298502121443414,0.016678293942158362,-0.23760012790401674
300bus.pwf,15,88,204,205,-0.025078854239422792,-0.15546186146388769,0.02629042133816905,0.15725287369681779,0.001211567098746258,0.0017910122329301004
300bus.pwf,15,89,60,62,-3.3980666551655943,0.48050848171035176,3.5079508346577017,-0.17106399043612952,0.10988417949210749,0.30944449127422224
300bus.pwf,15,90,137,181,-1.858743202782741,-1.4315805554209255,1.8612477879863938,1.4255513763752852,0.0025045852036527094,-0.006029179045640376
300bus.pwf,15,91,140,141,-0.5258090224944426,-0.0975024517339025,0.5288772513237553,-0.01578344130777308,0.0030682288293126803,-0.11328589304167558
300bus.pwf,15,92,81,194,0.1392915486159582,-0.9218341350459724,-0.13782545706330454,0.3723369961571301,0.0014660915526536478,-0.5494971388888423
300bus.pwf,15,93,143,145,0.46419327704801616,0.3935013419223854,-0.46126492315515244,-0.48853174088324747,0.002928353892863722,-0.09503039896086207
300bus.pwf,15,94,55,57,-1.004337170254165,0.2588376746311208,1.07691360397554,-0.15349817197120458,0.07257643372137501,0.1053395026599162
300bus.pwf,15,95,78,84,-3.3799999980797915,-0.81234391836065,3.3799999980797915,1.2580346678176042,0.0,0.4456907494569542
300bus.pwf,15,96,172,174,-0.3087340896554324,-0.11174435109506053,0.3143087835705582,0.10014563552624989,0.005574693915125772,-0.011598715568810647
300bus.pwf,15,97,126,127,1.691535216698016,-1.0674584117362529,-1.6666077457929247,1.0071424833783547,0.024927470905091287,-0.06031592835789823
300bus.pwf,15,98,57,63,0.18814968753349834,0.04135442732875604,-0.18185080380449506,-0.08992236848021484,0.0062988837290032795,-0.0485679411514588
300bus.pwf,15,99,190,240,-0.3309432372475536,1.202918797914343,0.3309432372475536,-1.164460749651255,0.0,0.038458048263088074
300bus.pwf,15,100,123,125,0.9838763394978223,-0.4499592767721203,-0.921139950599221,0.5066192067440383,0.06273638889860123,0.05665992997191799
300bus.pwf,15,101,126,158,-3.1925420334046537,1.0723723981331987,3.2932528840555846,-0.660690201090764,0.10071085065093088,0.4116821970424347
300bus.pwf,15,102,143,149,-0.48620341292990304,-0.3304805560157459,0.4897269545212137,0.2044148480944931,0.0035235415913106305,-0.1260657079212528
300bus.pwf,15,103,196,197,-0.74786216299691,-0.24148423504488778,0.7570704512275068,0.26396053985209056,0.009208288230596828,0.02247630480720278
300bus.pwf,15,104,163,164,-2.2837505419585207,-0.44816449602893005,2.314090637443499,-2.877384134523112,0.030340095484978402,-3.325548630552042
300bus.pwf,15,105,134,135,-0.45857511638202153,-0.05667365243026225,0.4594646529603321,-0.1215154267274987,0.0008895365783105902,-0.17818907915776094
300bus.pwf,15,106,242,247,0.9933782591116697,0.2131424302765202,-0.9816537132867557,-0.13745629963890466,0.011724545824914001,0.07568613063761553
300bus.pwf,15,107,102,104,0.5188997994321133,-0.2765843623574378,-0.5042461192454427,0.2716943236137348,0.01465368018667057,-0.0048900387437029735
300bus.pwf,15,108,99,108,-0.17618317000155945,-0.23107876342587996,0.1763550012965229,0.22946477327648562,0.00017183129496345373,-0.0016139901493943398
300bus.pwf,15,109,140,182,1.6357248517348986,-0.5184439779052163,-1.6322722730587877,0.4127239462262744,0.003452578676110818,-0.10572003167894195
300bus.pwf,15,110,173,174,-0.6416833028116914,-0.03016107575528057,0.6759577798288262,0.12025942408160814,0.03427447701713482,0.09009834832632757
300bus.pwf,15,111,198,202,0.1147759148095395,-0.01182029352990003,-0.11048559730942661,0.020711071963868934,0.0042903175001128835,0.008890778433968904
300bus.pwf,15,112,47,113,0.2506418618791894,-0.05549562147557606,-0.2476162328140809,0.05179688912539203,0.003025629065108504,-0.003698732350184031
300bus.pwf,15,113,134,184,-0.6195660826314409,-0.6723595229443956,0.6221440369216491,0.42765589276325333,0.0025779542902082397,-0.24470363018114227
300bus.pwf,15,114,77,80,-0.00797892369572852,-0.06248145305160937,0.0080081704944678,0.0258697358975908,2.924679873927971e-5,-0.036611717154018564
300bus.pwf,15,115,74,562,0.5128816506867471,-0.12878205682338073,-0.5049999466829769,-0.17399999522702647,0.007881704003770196,-0.3027820520504072
300bus.pwf,15,116,220,221,0.4654270636806273,0.005089405798633328,-0.46514701233660377,-0.5038679871499362,0.00028005134402353526,-0.4987785813513029
300bus.pwf,15,117,187,188,4.936299049070511,1.1885286332165401,-4.920290540938696,-1.1207491243398715,0.01600850813181509,0.06777950887666861
300bus.pwf,15,118,112,114,-0.04309717069719822,-0.035353862774815475,0.04314983410909447,0.029824360511493758,5.266341189624768e-5,-0.005529502263321717
300bus.pwf,15,119,37,49,2.751028526559043,-0.5567930656176101,-2.6148540270909204,1.1574243130877753,0.13617449946812243,0.6006312474701652
300bus.pwf,15,120,118,1201,-0.7306584335267358,-0.2673393397890991,0.7306584335267358,0.7227325185875391,0.0,0.45539317879844
300bus.pwf,15,121,146,147,-1.6759059088042227,0.2481481281402684,1.6949835769646655,-0.19840779745721068,0.019077668160442762,0.04974033068305772
300bus.pwf,15,122,9003,9007,-0.0699680882526623,-0.016463783064806593,0.07029515657732953,0.01790956573438366,0.00032706832466722346,0.001445782669577067
300bus.pwf,15,123,224,225,-2.389555852976731,1.193311851718726,2.467521146779876,-1.147485143958083,0.07796529380314476,0.045826707760642904
300bus.pwf,15,124,122,125,0.5677273843156923,-0.20330222665246525,-0.5251882815408122,0.31916707104612263,0.042539102774880044,0.11586484439365738
300bus.pwf,15,125,195,219,0.1617559813511762,-1.1199289648391608,-0.15954158486571401,0.5982847906031802,0.002214396485462178,-0.5216441742359806
300bus.pwf,15,126,133,169,1.0011863825812681,0.8373873660069053,-0.9975104710064654,-0.8339260217007949,0.003675911574802737,0.0034613443061104476
300bus.pwf,15,127,148,179,0.4120404028664317,0.07215309790341694,-0.38961658214515543,-0.08641583472732815,0.022423820721276244,-0.014262736823911215
300bus.pwf,15,128,242,245,0.6858052590035114,0.2094775723877418,-0.6815290824704946,-0.16509920373411682,0.004276176533016818,0.04437836865362499
300bus.pwf,15,129,90,92,-0.7704771106526567,-0.08623132062780467,0.7894010007764571,0.16369225599612644,0.01892389012380047,0.07746093536832177
300bus.pwf,15,130,190,229,-0.2108117721673091,0.10140866990273167,0.2108117721673091,-0.09833074700508249,0.0,0.003077922897649188
300bus.pwf,15,131,218,220,-0.3289928060420443,-0.23064030286015563,0.3293891076609886,-0.20023418008213428,0.000396301618944328,-0.4308744829422899
300bus.pwf,15,132,214,215,2.502165369410956,0.135588240819744,-2.491303517766685,-0.03693289415693449,0.010861851644270892,0.0986553466628095
300bus.pwf,15,133,38,41,-0.7523655983103766,-0.1182221647258162,0.7570638742361196,0.12006565313681766,0.004698275925743012,0.0018434884110014593
...
test_system.pwf,16,1,24,26,-0.3460000000000001,-0.06900000000868838,0.3471328281355689,-0.00946762900075111,0.0011328281355688086,-0.07846762900943949
test_system.pwf,16,2,26,29,-0.3471328281355689,0.009467628994229062,0.34828553829203135,-0.08748072038203694,0.0011527101564624553,-0.07801309138780788
test_system.pwf,16,7,23,29,0.34828553829203124,-0.0798849782072395,-0.34828553829203124,0.08748072038058297,0.0,0.007595742173343467
300bus.pwf,17,1,206,207,-0.09064487505969514,-0.10123444356218607,0.09178940978779253,0.1026925494486665,0.0011445347280973905,0.001458105886480432
300bus.pwf,17,2,9021,9023,0.009347911004366145,-0.01629775370296572,-0.009022057846886795,0.01657826180866074,0.00032585315747934995,0.00028050810569502094
300bus.pwf,17,3,1,5,4.06711215433969,1.0530949060587762,-4.051776214114505,-0.9610792647076937,0.01533594022518514,0.09201564135108253
300bus.pwf,17,4,37,38,-0.3055018319588892,-0.20734008474375606,0.3065639635181075,0.20536909163154313,0.0010621315592183045,-0.0019709931122129376
300bus.pwf,17,5,70,528,0.2834513939186946,-0.23847363684700867,-0.28099999999999964,0.2231840486525119,0.0024513939186949774,-0.015289588194496773
300bus.pwf,17,6,25,26,0.7866023076554892,-0.03351942210293307,-0.7672937663081315,0.03323622536407539,0.01930854134735771,-0.0002831967388576828
300bus.pwf,17,7,41,42,-5.511581581996007,-0.41691624518319514,5.511581581996007,1.2653311274364185,0.0,0.8484148822532234
300bus.pwf,17,8,231,232,5.526712518388131,-0.19173901268044877,-5.521578948088152,-1.2688139031569055,0.005133570299979517,-1.4605529158373542
300bus.pwf,17,9,201,204,-0.15245843323227093,0.05716049570419145,0.15542685819202728,-0.052779674997454826,0.002968424959756355,0.004380820706736621
300bus.pwf,17,10,119,1190,1.0039363801611447,0.31330904331702086,-1.0030000000000059,-0.2917722996108209,0.0009363801611388389,0.021536743706199957
300bus.pwf,17,11,115,122,1.9107930543097809,0.9453803340104596,-1.893443546595438,-0.8531523215033385,0.01734950771434285,0.0922280125071211
300bus.pwf,17,12,9006,9007,0.09116459283171305,-0.059354300555837305,-0.09060699937494873,0.06182885978659532,0.0005575934567643159,0.002474559230758011
300bus.pwf,17,13,145,146,-2.06468104796119,-0.3369650647558615,2.1007407491479686,0.49356412005179995,0.0360597011867787,0.15659905529593843
300bus.pwf,17,14,228,231,0.033803365303520905,-0.848045919115496,-0.03200999335492499,0.9112967682255885,0.001793371948595912,0.06325084911009249
300bus.pwf,17,15,129,133,1.0277189610479893,-0.11811395188909206,-1.0256437538310084,0.10411691308969655,0.0020752072169809566,-0.013997038799395511
300bus.pwf,17,16,189,208,0.06228162471433914,0.04349019206379147,-0.06211977322600344,-0.04302425596100669,0.00016185148833569585,0.0004659361027847808
300bus.pwf,17,17,57,58,-0.6383729638024963,0.624738382817555,0.6705285550329151,-0.6105966932302429,0.03215559123041878,0.0141416895873121
300bus.pwf,17,18,200,210,-0.23504929186462786,-0.03515976323426945,0.23922604388300717,0.02622964773065889,0.004176752018379304,-0.008930115503610558
300bus.pwf,17,19,15,89,0.4381367758633031,-0.2267114097621206,-0.4164486287579772,0.24290530472418317,0.02168814710532585,0.016193894962062583
300bus.pwf,17,20,197,198,-0.9616908519675522,-0.33722246680574675,0.9707107930048158,0.3807329946983399,0.009019941037263557,0.04351052789259313
300bus.pwf,17,21,14,15,2.4149418666251075,-1.2592861484082698,-2.315369534507891,1.4561881881034695,0.09957233211721661,0.1969020396951997
300bus.pwf,17,22,9004,9044,-0.04293062893366596,0.027954218044046505,0.0430142012678283,-0.027891102612141658,8.357233416234067e-5,6.31154319048477e-5
300bus.pwf,17,23,173,176,-0.4688698185950244,0.3224173636564831,0.5362553452163233,-0.19533341369855448,0.06738552662129893,0.12708394995792863
300bus.pwf,17,24,224,226,-0.43084613295853846,-2.9496683773768053,0.4421269139082,2.056077966783316,0.011280780949661562,-0.8935904105934895
300bus.pwf,17,25,135,136,-2.1465740461484644,-0.2215922562325357,2.1841077405383107,0.03762184709525479,0.03753369438984633,-0.1839704091372809
300bus.pwf,17,26,13,20,0.8973034000797998,-0.2017347194233969,-0.8926915601120345,0.21030714347198073,0.004611839967765263,0.008572424048583827
300bus.pwf,17,27,116,120,-2.80493700728062,-0.3436082156967589,2.8222103236243195,1.2485799197016538,0.017273316343699552,0.9049717040048949
300bus.pwf,17,28,104,322,0.024138970054056408,-0.06482177136638603,-0.024000000000000465,0.047467540096293975,0.00013897005405594243,-0.017354231270092058
300bus.pwf,17,29,37,90,-0.5907726498276904,-0.03519089742391307,0.6069800918605359,0.062207959254506895,0.01620744203284552,0.027017061830593825
300bus.pwf,17,30,127,128,-0.5301584248815092,-0.2581834996172994,0.5319780525975226,0.17455918254180253,0.0018196277160134056,-0.08362431707549689
300bus.pwf,17,31,26,320,0.024661344575461173,-0.13559305378973494,-0.023999999999999654,0.1219344890913736,0.0006613445754615199,-0.013658564698361339
300bus.pwf,17,32,167,169,-1.4997445324711118,-0.4916744103605337,1.5041043583133153,0.5048001315190502,0.004359825842203513,0.013125721158516512
300bus.pwf,17,33,203,211,0.2736738942802681,0.10065390013967626,-0.2729425353146757,-0.10567518662389855,0.0007313589655923991,-0.005021286484222287
300bus.pwf,17,34,123,124,-1.3727439896773397,0.5751572516758543,1.4668745708562707,-0.3955417854683692,0.09413058117893103,0.17961546620748509
300bus.pwf,17,35,24,319,1.1668626326146074,-0.30544514834304703,-1.1580000000000008,0.24040416811384457,0.008862632614606625,-0.06504098022920246
300bus.pwf,17,36,99,109,0.3282301960954854,0.02388782653144078,-0.32403172529552576,-0.04167559110770286,0.004198470799959664,-0.017787764576262077
300bus.pwf,17,37,77,78,-2.626996837951843,-0.6902509766789642,2.6336153947665935,0.72211717564387,0.00661855681475032,0.031866198964905834
300bus.pwf,17,38,20,27,0.23987806404174233,-0.01586861441531201,-0.23617546829409125,-0.07966279450506492,0.003702595747651083,-0.09553140892037693
300bus.pwf,17,39,198,210,0.9451685058153395,0.2991836916016333,-0.9288747225130146,-0.2490812753617029,0.016293783302324893,0.050102416239930364
300bus.pwf,17,40,97,102,0.2906991839336084,-0.08859301766908241,-0.2877689549711291,0.08154081018165978,0.0029302289624792976,-0.007052207487422635
300bus.pwf,17,41,37,40,-0.2118702778691784,-0.22373280663247366,0.21389559270480324,0.22239229135017427,0.0020253148356248474,-0.0013405152822993927
300bus.pwf,17,42,220,238,-2.75599051905211,2.3442094293979974,2.777141436287072,-2.710667291408944,0.021150917234962208,-0.36645786201094666
300bus.pwf,17,43,8,14,4.225858178497491,-0.0850794856187902,-4.01494186662511,0.6803796586467981,0.21091631187238136,0.5953001730280079
300bus.pwf,17,44,158,159,-2.378737360466023,0.4275981136337127,2.397556876634001,-0.41509071848998047,0.01881951616797828,0.012507395143732225
300bus.pwf,17,45,217,220,-0.13968693386175182,0.3588971557928141,0.14137615629311098,-1.2510491704095232,0.0016892224313591608,-0.8921520146167091
300bus.pwf,17,46,122,123,0.30366577881688783,-0.053328563330089396,-0.2951872437562303,0.05233341867820063,0.008478535060657544,-0.0009951446518887685
300bus.pwf,17,47,228,234,-0.09495665237967113,-1.532451767014931,0.09650027028350286,0.6943721252563908,0.0015436179038317288,-0.8380796417585401
300bus.pwf,17,48,7,12,2.599405272056393,-1.316738732194591,-2.5914322974174078,1.3141428719234767,0.007972974638985164,-0.0025958602711142476
300bus.pwf,17,49,130,151,1.4040904680721706,0.697368246924021,-1.4003434034066908,-0.6898749430794233,0.0037470646654798045,0.007493303844597676
300bus.pwf,17,50,11,13,1.4933325195854747,-0.057922797311033836,-1.4773034000798013,0.10615575770919,0.016029119505673428,0.048232960398156166
300bus.pwf,17,51,198,203,0.6977428717034281,0.23024473099649956,-0.6936738942802677,-0.239270984578276,0.004068977423160369,-0.009026253581776444
300bus.pwf,17,52,245,246,0.19722263319914796,0.06118834993300649,-0.1966072853437308,-0.05831933954978819,0.0006153478554171699,0.0028690103832182956
300bus.pwf,17,53,165,166,-5.522425421874143,0.7759022388988995,5.529999999999999,-0.31006568415873514,0.00757457812585649,0.4658365547401644
300bus.pwf,17,54,235,238,-2.6546759569756184,-0.447596942506471,2.6560126340022614,-0.39247182469161945,0.001336677026642974,-0.8400687671980904
300bus.pwf,17,55,119,121,6.743110518305249,4.9009070583331145,-6.743110518305249,-1.4770738050073966,0.0,3.423833253325718
300bus.pwf,17,56,63,526,1.5081999217527549,-0.055935710426386454,-1.4530000000000003,0.38583295428846087,0.055199921752754566,0.3298972438620744
300bus.pwf,17,57,85,86,-1.299989476776577,0.2817344924855494,1.3126043525610576,-0.3270925783673544,0.012614875784480617,-0.04535808588180501
300bus.pwf,17,58,125,126,-3.7774339548007503,0.17548851808901983,3.7862061388258583,0.11253152406869876,0.008772184025108043,0.2880200421577186
300bus.pwf,17,59,172,173,0.32668741124042094,0.11723335052073497,-0.318683926957084,-0.12246807078118088,0.00800348428333697,-0.005234720260445913
300bus.pwf,17,60,173,175,-0.19081405279563154,-0.0021765839096987705,0.1937577009338803,-0.0256905998421586,0.0029436481382487667,-0.02786718375185737
300bus.pwf,17,61,126,129,0.2789877682747107,-0.5463921142225998,-0.2756431598241428,0.3879425105716048,0.003344608450567943,-0.15844960365099503
300bus.pwf,17,62,157,159,-6.293322683130257,1.8887277481413234,6.330744558106286,-1.4933775014132946,0.03742187497602867,0.39535024672802876
300bus.pwf,17,63,175,179,0.1651691867113534,-0.04062741168384547,-0.16292335497047616,-0.0009347003838992701,0.0022458317408772244,-0.04156211206774474
300bus.pwf,17,64,154,183,-0.4559825388556119,0.06582631435485457,0.4768110447222992,-0.02513584168554099,0.020828505866687275,0.04069047266931358
300bus.pwf,17,65,21,24,-2.275646737619829,-0.9857581166133244,2.2983847715655354,0.8776440659876122,0.022738033945706615,-0.10811405062571211
300bus.pwf,17,66,217,219,-1.1969222627460332,-2.081379150483256,1.199443416241413,2.147188556669958,0.0025211534953797354,0.06580940618670184
300bus.pwf,17,67,91,94,-0.16462138877909566,0.29190118813406457,0.1748368818890726,-0.301757027091254,0.010215493109976936,-0.009855838957189444
300bus.pwf,17,68,191,192,8.292061579432819,3.2886226955036353,-8.05079462523138,0.5716485717193914,0.24126695420143918,3.860271267223027
300bus.pwf,17,69,217,218,0.1767393845708703,0.4224901702195787,-0.1767393845708703,-0.41405596580846904,0.0,0.008434204411109647
300bus.pwf,17,70,12,21,4.925598977149996,0.6587605491277724,-4.879337729879601,-0.43610175219806524,0.0462612472703956,0.22265879692970714
300bus.pwf,17,71,178,179,0.1780731050054976,-0.29966484166089097,-0.17126009033646944,0.29943184339521683,0.006813014669028172,-0.00023299826567413362
300bus.pwf,17,72,51,52,-0.32580589765786727,-0.05894991224520098,0.3300507632212468,0.02474426522162311,0.004244865563379552,-0.03420564702357787
300bus.pwf,17,73,158,160,-0.9176957241302536,0.49199408816784196,0.9265511487953048,-0.6790847151420634,0.008855424665051181,-0.1870906269742214
300bus.pwf,17,74,33,38,1.3973896636061842,0.1870696030274301,-1.392650337893326,-0.17789549159457446,0.004739325712858289,0.009174111432855625
300bus.pwf,17,75,199,200,-0.016503691096248087,-0.010388625560785056,0.016524959011624908,0.0006690105544711481,2.1267915376821378e-5,-0.009719615006313909
300bus.pwf,17,76,98,100,-0.04186589727802151,0.19459918633375295,0.042684828574910655,-0.2008038834318019,0.0008189312968891471,-0.006204697098048939
300bus.pwf,17,77,126,157,-3.6927612605387767,1.1615153431122993,3.771161298973527,-0.6921580269259631,0.0784000384347503,0.46935731618633625
300bus.pwf,17,78,53,54,-0.37529266151848256,-0.014434750107592764,0.3786394004263611,-0.012952685087211036,0.0033467389078785104,-0.0273874351948038
300bus.pwf,17,79,72,531,0.14047113917792126,0.015506101648954634,-0.13999999999999996,-0.011954153940409357,0.0004711391779212981,0.0035519477085452777
300bus.pwf,17,80,2,8,4.5158835760388705,0.3217839967608569,-4.409804062967304,0.09451855365180961,0.10607951307156682,0.4163025504126665
300bus.pwf,17,81,48,107,-0.49835395422883855,-0.2553274450748141,0.5055317679446191,0.26532996736144054,0.007177813715780523,0.010002522286626458
300bus.pwf,17,82,199,210,-0.33349630890375126,-0.11189824461906783,0.33804808549326637,0.11796871161928524,0.004551776589515111,0.0060704670002174055
300bus.pwf,17,83,15,90,0.5068158870216337,-0.12447092221212236,-0.4829764075696971,0.16285646645011426,0.023839479451936596,0.0383855442379919
300bus.pwf,17,84,45,74,2.482484791890394,-0.45285502215824674,-2.4320308473512644,0.30078181378698016,0.05045394453912966,-0.1520732083712666
300bus.pwf,17,85,35,76,1.1272172393077737,0.3815726538839851,-1.119422949897347,-0.36554371305289346,0.0077942894104268134,0.01602894083109163
300bus.pwf,17,86,117,118,-9.058301434740303,3.3564406371129882,9.068355506719351,-3.1911703688461364,0.010054071979048729,0.16527026826685187
300bus.pwf,17,87,39,42,5.000000000000008,1.298444481243752,-4.985330791610028,-1.5885232313089719,0.014669208389980426,-0.29007875006522
300bus.pwf,17,88,204,205,0.024658453686621423,-0.16831851047241206,-0.02347568740780767,0.17006694758022609,0.0011827662788137516,0.001748437107814027
300bus.pwf,17,89,60,62,-3.412932707092773,0.3966828857976826,3.509880378548904,-0.24615907550410487,0.09694767145613126,0.15052381029357775
300bus.pwf,17,90,137,181,-1.8668899206146936,-1.7707956309019868,1.869700675569104,1.7651911594680745,0.0028107549544102994,-0.005604471433912295
300bus.pwf,17,91,140,141,-0.5104263453834799,0.03961040032740214,0.513251038694567,-0.16221233772009847,0.0028246933110871453,-0.12260193739269633
300bus.pwf,17,92,81,194,0.1642791331499312,-0.8354164843744656,-0.16336717281279706,0.21676492088387117,0.0009119603371341434,-0.6186515634905945
300bus.pwf,17,93,143,145,0.4251287978721418,0.927345220519892,-0.4176528636904437,-0.9814664131123374,0.007475934181698118,-0.05412119259244541
300bus.pwf,17,94,55,57,-1.0602313414540236,0.11112972478123073,1.130707136140468,-0.019679372723086286,0.07047579468644427,0.09145035205814445
300bus.pwf,17,95,78,84,-3.3799999999999994,-0.9477095266584357,3.3799999999999994,1.341121275773105,0.0,0.39341174911466936
300bus.pwf,17,96,172,174,-0.30104316124629865,-0.111946388357437,0.3061761432864957,0.09743717933492183,0.005132982040197076,-0.01450920902251518
300bus.pwf,17,97,126,127,1.7086718153140446,-1.1583111345748756,-1.6846713993690208,1.0688984203750196,0.02400041594502378,-0.08941271419985597
300bus.pwf,17,98,57,63,0.1776658276620292,-0.005268073536800061,-0.17323157581519966,-0.06043900785104547,0.004434251846829551,-0.06570708138784553
300bus.pwf,17,99,190,240,-0.33094764804722554,1.3323686229430862,0.33094764804722554,-1.2895337944098983,0.0,0.042834828533187874
300bus.pwf,17,100,123,125,0.8879312334335717,-0.6423565720482936,-0.8265906793304344,0.6868469808470659,0.061340554103137324,0.04449040879877231
300bus.pwf,17,101,126,158,-3.199811258246031,1.276383028733162,3.296433084596274,-0.9185413777375164,0.09662182635024275,0.35784165099564547
300bus.pwf,17,102,143,149,-0.5004990789233876,-0.16684517664739812,0.5032779850831937,0.0254380250528647,0.002778906159806027,-0.14140715159453343
300bus.pwf,17,103,196,197,-0.7733146791128749,-0.22086528044344403,0.7814794038170745,0.23968312254136107,0.0081647247041996,0.018817842097917037
300bus.pwf,17,104,163,164,-2.223265207857585,0.605972413099704,2.2698743308808016,-3.553220155997841,0.046609123023216625,-2.9472477428981367
300bus.pwf,17,105,134,135,-0.45374516432943224,-0.0017246117421380602,0.4545740461484681,-0.19387203151797922,0.0008288818190358427,-0.19559664326011728
300bus.pwf,17,106,242,247,0.9926285297464551,0.1977367269515528,-0.9825526772454524,-0.13269350053883205,0.010075852501002736,0.06504322641272076
300bus.pwf,17,107,102,104,0.5197304877828681,-0.36098592916829875,-0.5054950968831757,0.35040995982668444,0.01423539089969239,-0.01057596934161431
300bus.pwf,17,108,99,108,-0.1785669960482886,-0.5802242913034522,0.17918859749248325,0.579099361437969,0.0006216014441946527,-0.0011249298654831819
300bus.pwf,17,109,140,182,1.6567405650500369,-0.837314469096955,-1.6529998608756997,0.7244245588409963,0.0037407041743371394,-0.11288991025595863
300bus.pwf,17,110,173,174,-0.6566322016522605,-0.141815326398974,0.6956200189454028,0.2516374010749344,0.03898781729314227,0.10982207467596036
300bus.pwf,17,111,198,202,0.11502425956504714,-0.0030227223468627246,-0.11139154386072847,0.010550759710029042,0.0036327157043186675,0.007528037363166318
300bus.pwf,17,112,47,113,0.2301222778134697,-0.12801459057187822,-0.2273989216393741,0.12154555613997639,0.0027233561740955814,-0.006469034431901832
300bus.pwf,17,113,134,184,-0.6202704118305884,-0.7502307930927191,0.6228910336244837,0.4804515681678619,0.002620621793895328,-0.26977922492485723
300bus.pwf,17,114,77,80,0.00015403195782578288,-0.10374556913608025,-6.831475114784519e-5,0.061627029701287986,8.57172066779377e-5,-0.04211853943479227
300bus.pwf,17,115,74,562,0.5117827745853297,-0.21866745390615017,-0.5049999999999999,-0.14932283810684654,0.006782774585329832,-0.3679902920129967
300bus.pwf,17,116,220,221,0.4670191307482661,-0.9770769806939436,-0.46634691529040545,0.4482502610698441,0.0006722154578606698,-0.5288267196240994
300bus.pwf,17,117,187,188,4.93210377143208,0.9716147212259214,-4.917403931597449,-0.9288298181597154,0.014699839834630524,0.04278490306620597
300bus.pwf,17,118,112,114,-0.039552557915702904,-0.023389028197015785,0.03958235641105946,0.016725958628718354,2.9798495356558874e-5,-0.006663069568297431
300bus.pwf,17,119,37,49,2.73806032227477,0.9946605484276261,-2.5949950544461444,-0.3568669473988435,0.1430652678286255,0.6377936010287826
300bus.pwf,17,120,118,1201,-0.6895294320936023,-0.07495636762401081,0.6895294320936023,0.39766918166619236,0.0,0.32271281404218155
300bus.pwf,17,121,146,147,-1.6758185306141464,0.16052183500255227,1.6945642907237422,-0.11359908329806304,0.01874576010959572,0.04692275170448923
300bus.pwf,17,122,9003,9007,-0.06987196646449338,0.02775338387042798,0.07013371692475427,-0.026596334255232397,0.00026175046026089,0.0011570496151955822
300bus.pwf,17,123,224,225,-2.3293912838552475,2.360834322807521,2.4437777528856715,-2.0864448029622737,0.11438646903042393,0.27438951984524707
300bus.pwf,17,124,122,125,0.5845569871113409,-0.2095679187197305,-0.5439753658688135,0.3133077407145378,0.0405816212425274,0.10373982199480733
300bus.pwf,17,125,195,219,0.19140915008727988,-0.7569383661373984,-0.19075769876815163,0.16428438260595693,0.0006514513191282489,-0.5926539835314415
300bus.pwf,17,126,133,169,0.9640337096516873,0.7895803017635976,-0.9609617733165177,-0.7942438245792522,0.003071936335169667,-0.0046635228156546304
300bus.pwf,17,127,148,179,0.4327362185375935,0.1660540672795492,-0.4058165546930541,-0.16929814583546654,0.026919663844539365,-0.0032440785559173513
300bus.pwf,17,128,242,245,0.6794229082958191,0.25261724659241325,-0.6756391884864167,-0.2133496178387395,0.003783719809402397,0.03926762875367373
300bus.pwf,17,129,90,92,-0.7840036842908388,-0.18048477904351962,0.8029949951778449,0.2562344918146631,0.01899131088700612,0.07574971277114351
300bus.pwf,17,130,190,229,-0.2863529442986721,1.5343466472393388,0.2863529442986721,-1.4083076213078058,0.0,0.12603902593153293
300bus.pwf,17,131,218,220,-0.2970085977592221,0.05684895642726863,0.29759523201071875,-0.5148340164757653,0.0005866342514966316,-0.4579850600484967
300bus.pwf,17,132,214,215,2.5110764099085348,0.41054391837728066,-2.5014052835610876,-0.32787110304912137,0.009671126347447156,0.08267281532815929
300bus.pwf,17,133,38,41,-0.6930204712289844,0.0706780144293847,0.6967707752347215,-0.07416099689974398,0.0037503040057371706,-0.003482982470359275
300bus.pwf,17,134,41,51,1.244943030044732,0.2298959727695526,-1.1970982861875734,-0.12819019131765302,0.047844743857158534,0.10170578145189957
300bus.pwf,17,135,162,164,4.605554380134536,-0.5579852182646495,-4.543482008147105,1.201460687588538,0.06207237198743076,0.6434754693238885
300bus.pwf,17,136,70,71,-0.8434513939186937,0.05641567629931171,0.8651004846313094,-0.05604101650447707,0.02164909071261567,0.00037465979483464196
300bus.pwf,17,137,9003,9044,0.04328680550123551,-0.05077790509668902,-0.04301420126783015,0.05101260041935143,0.0002726042334053602,0.00023469532266240378
300bus.pwf,17,138,33,40,0.6735128152641532,-0.1820849498997118,-0.6707521540865202,0.1744077763548274,0.0027606611776329615,-0.007677173544884397
300bus.pwf,17,139,120,1201,0.6895294320936028,0.06448811387791364,-0.6895294320936028,-0.22525955052676983,0.0,-0.16077143664885618
300bus.pwf,17,140,105,110,0.4408751236599664,-0.11447158708716501,-0.41369441498047643,0.1297617914781201,0.027180708679489962,0.015290204390955076
300bus.pwf,17,141,162,165,-5.4555543801345365,0.3162049541769797,5.522425421874145,-0.7767135092141807,0.06687104173960812,-0.460508555037201
300bus.pwf,17,142,42,46,5.561318986394626,-1.6390351476546368,-5.502101091405782,1.1655979180562337,0.05921789498884422,-0.47343722959840306
300bus.pwf,17,143,37,41,-1.1007403523186912,-0.09856683577756709,1.112763767943306,0.12126597778686143,0.012023415624614842,0.02269914200929435
300bus.pwf,17,144,103,105,0.4249925043783795,-0.018283437257586896,-0.42208206415480815,0.018393404673602773,0.0029104402235713422,0.000109967416015877
300bus.pwf,17,145,127,168,-0.5275156546779208,-0.25792045938653657,0.5293189906790255,0.17414017923202635,0.0018033360011047161,-0.08378028015451022
300bus.pwf,17,146,126,132,-0.010369616861714628,-0.4795089921173842,0.012463664401916999,0.16433590605764914,0.0020940475402023706,-0.31517308605973504
300bus.pwf,17,147,94,97,0.19729945402421903,-0.2328632055901933,-0.17625603713360175,0.21626570102935488,0.021043416890617284,-0.016597504560838416
300bus.pwf,17,148,177,178,1.5855656101733864,-0.439810130518207,-1.511838339437113,0.679949501178887,0.07372727073627328,0.24013937066067997
300bus.pwf,17,149,34,42,-2.402443870446946,-0.3783407067126919,2.4078939424625694,0.3762600532074319,0.0054500720156234195,-0.0020806535052599884
300bus.pwf,17,150,71,73,-0.5999195879878737,0.3205681651022371,0.6146638353839319,-0.32911944159615353,0.014744247396058174,-0.008551276493916404
300bus.pwf,17,151,249,250,-0.2259063979772063,-0.15352089733914093,0.23000000000000026,0.16586151252798392,0.004093602022793963,0.012340615188842996
300bus.pwf,17,152,19,87,2.982297241933832,-0.4363444400726304,-2.8696579042931756,0.9695148940591856,0.11263933764065648,0.5331704539865552
300bus.pwf,17,153,74,88,-0.7132865867602379,-0.5676168486143525,0.7161844625722954,0.5310536239234651,0.002897875812057471,-0.03656322469088735
300bus.pwf,17,154,178,180,-2.1596361238851705,-1.3483511196918365,2.2062439648344494,1.4951064482715517,0.046607840949278945,0.14675532857971518
300bus.pwf,17,155,140,146,-0.25370139417891036,-0.13972129735988692,0.2567028038104259,-0.3642846933886086,0.003001409631515517,-0.5040059907484955
300bus.pwf,17,156,2,6,1.0832230563569083,0.47895897890373385,-1.0820143102162922,-0.4680802636382,0.0012087461406160571,0.010878715265533856
300bus.pwf,17,157,126,169,0.5500764132319022,-0.41530110457021696,-0.5431425849967916,0.2906113918587253,0.006933828235110573,-0.12468971271149165
300bus.pwf,17,158,109,114,0.10447109928770051,-0.04191175361315762,-0.1033717661988516,0.005326570415542232,0.0010993330888489083,-0.03658518319761539
300bus.pwf,17,159,35,77,-0.4904465507850673,-0.2252622046178589,0.49311006833049614,0.2296793492920019,0.0026635175454288174,0.004417144674143003
300bus.pwf,17,160,73,76,0.26721179327440703,0.03618031042718951,-0.2657750669927553,-0.0645417702256398,0.0014367262816517012,-0.028361459798450284
300bus.pwf,17,161,76,77,-0.694801983109914,-0.2769539182038021,0.703174311082425,0.2950930209639968,0.008372327972510973,0.018139102760194703
300bus.pwf,17,162,99,107,-0.19571470527998838,0.21575512097292127,0.19972040259737958,-0.22530720678007843,0.004005697317391199,-0.009552085807157162
300bus.pwf,17,163,196,210,-0.2575949513132286,-0.06207596380222932,0.2594791614019293,0.0559640173533503,0.0018842100887006552,-0.006111946448879024
300bus.pwf,17,164,62,64,2.097946049800312,0.20088312545951714,-2.034968345937555,-0.010705971053439622,0.06297770386275703,0.19017715440607752
300bus.pwf,17,165,139,172,0.29510206360381347,-0.06530602858699407,-0.2906442499941228,-0.005430859004606284,0.004457813609690664,-0.07073688759160035
300bus.pwf,17,166,192,225,0.05079462523138217,-1.2911805766283444,-0.04667184149679854,1.3097331034339939,0.004122783734583635,0.01855252680564945
300bus.pwf,17,167,4,16,12.278002317259151,0.6781610894654642,-12.002662418963137,0.7168582217557335,0.27533989829601424,1.3950193112211977
300bus.pwf,17,168,181,187,-6.4554041979411,-1.1740800612357518,6.46989622856795,1.3371361680087646,0.014492030626850116,0.16305610677301274
300bus.pwf,17,169,140,142,0.8101246063681263,-0.12478876122566042,-0.8005503592435236,-0.570061845000295,0.009574247124602753,-0.6948506062259554
300bus.pwf,17,170,205,206,0.015732313547430064,-0.04522953070608762,-0.015128148211675817,0.04612177487743377,0.0006041653357542476,0.000892244171346146
300bus.pwf,17,171,109,113,0.035297530545882534,0.06382967847953587,-0.03460107836062593,-0.09611132911261418,0.0006964521852566019,-0.03228165063307831
300bus.pwf,17,172,219,237,-0.5503523141680459,-2.981711193750777,0.5504341022247784,-3.309121369876073,8.178805673253464e-5,-6.29083256362685
300bus.pwf,17,173,35,72,0.48746603272615174,-0.04834376868884252,-0.4848307273822734,0.05281599562326025,0.002635305343878347,0.0044722269344177334
300bus.pwf,17,174,140,147,-0.4652533209590552,-0.15402494614396633,0.4754357092762609,-0.3864009257968145,0.010182388317205693,-0.5404258719407808
300bus.pwf,17,175,3,19,1.763885298180733,-0.08572208609141682,-1.740257940208754,0.14392173670436534,0.023627357971979013,0.05819965061294852
300bus.pwf,17,176,38,43,0.22910684560420647,-0.20672686318179045,-0.22642397581119544,0.17211158681883254,0.0026828697930110224,-0.034615276362957914
300bus.pwf,17,177,58,59,-0.8105285550329169,0.6364861659409615,0.8189328572826449,-0.6178684423729481,0.00840430224972799,0.01861772356801339
300bus.pwf,17,178,136,137,0.9066852529399647,-0.3935415165910775,-0.8978650591337585,-0.17639752104754333,0.008820193806206245,-0.5699390376386209
300bus.pwf,17,179,133,171,7.647576634382102,1.9949211589086677,-7.636000000000003,-1.4103011226126942,0.011576634382099549,0.5846200362959735
300bus.pwf,17,180,216,217,-0.1586663547926874,-0.5565320932873558,0.1598698120369135,0.5515814338145194,0.0012034572442261027,-0.0049506594728363496
300bus.pwf,17,181,118,121,0.5184572144791787,0.23389776406430457,-0.5176825360045357,-0.13125286617410353,0.0007746784746429647,0.10264489789020104
300bus.pwf,17,182,9002,9021,0.07253975895502829,-0.037498164666374484,-0.07224172934799067,0.03788810061033168,0.0002980296070376198,0.0003899359439571981
300bus.pwf,17,183,54,55,-0.3201593576048838,0.15109178756301417,0.32452361151132525,-0.18830295359705324,0.004364253906441462,-0.03721116603403907
300bus.pwf,17,184,86,323,-0.14864965101967628,0.1578558088521942,0.14900000000000144,-0.25851625621097485,0.0003503489803251547,-0.10066044735878066
300bus.pwf,17,185,108,324,0.25098408256120697,-0.04542732714919907,-0.2470000000000002,0.026057058646496892,0.003984082561206775,-0.01937026850270218
300bus.pwf,17,186,43,53,0.3159576695976339,-0.051193544686626846,-0.31470733848151916,0.03807124492069114,0.0012503311161147224,-0.013122299765935708
300bus.pwf,17,187,22,23,-0.9682231737173034,-0.044852356500678536,1.0128575696263962,0.08256676708927213,0.044634395909092794,0.037714410588593594
300bus.pwf,17,188,186,188,6.557978852173828,0.9056285033198483,-6.532548541978943,-0.7310121072560085,0.025430310194884953,0.17461639606383983
300bus.pwf,17,189,3,150,-3.228808249825336,1.1591442960801408,3.2399793391980665,-1.0809466704710053,0.011171089372730592,0.07819762560913546
300bus.pwf,17,190,86,87,-1.852947417942832,0.599382557188954,1.8945215683798853,-0.4795438648248949,0.04157415043705326,0.11983869236405903
300bus.pwf,17,191,69,79,-0.07755026091290941,-0.06710724183699915,0.07797412435862618,0.04321191390167802,0.0004238634457167656,-0.023895327935321127
300bus.pwf,17,192,9002,9012,-0.043060994681733696,0.03034658292709242,0.04323704579927102,-0.029346773339881622,0.0001760511175373236,0.0009998095872107982
300bus.pwf,17,193,128,130,-0.8932289759431518,-0.214959029480831,0.8991290649197654,0.13434817049961945,0.005900088976613649,-0.08061085898121156
300bus.pwf,17,194,176,177,1.059170230164127,-0.08952796460442364,-1.025565610173386,0.16170524310492623,0.033604619990740936,0.0721772785005026
300bus.pwf,17,195,130,168,0.8883384058560727,0.13368627398286037,-0.8825755901245952,-0.2137365870267356,0.005762815731477522,-0.08005031304387522
300bus.pwf,17,196,98,102,0.05486589727802077,0.11826435667660773,-0.054325674422184334,-0.13423457916672232,0.0005402228558364364,-0.015970222490114594
300bus.pwf,17,197,232,233,1.0415789480881505,-0.16047615170585017,-1.0400000000000003,0.20552261186778464,0.0015789480881502893,0.045046460161934476
300bus.pwf,17,198,73,79,-0.26569674873062493,-0.1505680389547735,0.2671984544672534,0.13517691666060477,0.0015017057366284448,-0.015391122294168724
300bus.pwf,17,199,71,72,-0.2651808966434349,0.12414629650934764,0.2683191392546326,-0.18726003528280913,0.0031382426111976613,-0.06311373877346149
300bus.pwf,17,200,43,44,-0.39528747489029353,-0.11808580723689958,0.39937514782048883,0.09178580986896571,0.004087672930195296,-0.02629999736793387
...
test_system.pwf,17,1,24,26,-0.346,-0.06899999999997367,0.3472131826479675,5.53286552870437e-5,0.0012131826479675478,-0.06894467134468663
test_system.pwf,17,2,26,29,-0.34721318264796774,-5.5328655409456196e-5,0.34842624910575914,-0.06962540682255393,0.0012130664577914008,-0.06968073547796338
test_system.pwf,17,7,23,29,0.34842624910575903,-0.06175963261574324,-0.34842624910575903,0.06962540682252438,0.0,0.00786577420678114
300bus.pwf,18,1,206,207,-0.15213388884468312,-0.1479744870465509,0.1549690548457486,0.15158641085612842,0.002835166001065481,0.003611923809577533
300bus.pwf,18,2,9021,9023,0.009120424502473376,0.002635669511689518,-0.009027319871703096,-0.0025555211288692957,9.310463077027986e-5,8.014838282022207e-5
300bus.pwf,18,3,1,5,4.082128968148818,1.3292615044884253,-4.065908159047281,-1.2319366498792415,0.01622080910153656,0.09732485460918383
300bus.pwf,18,4,37,38,-0.25609679085167947,-0.3420950129737039,0.25751702957415723,0.34218887875206816,0.0014202387224777624,9.386577836423271e-5
300bus.pwf,18,5,70,528,0.283604000652468,-0.21570090118067672,-0.28099999998407704,0.20507023733931803,0.002604000668390949,-0.01063066384135869
...